Version 4
SHEET 1 1332 680
WIRE -400 -160 -400 -208
WIRE -848 -144 -848 -192
WIRE 144 -128 64 -128
WIRE 64 -112 64 -128
WIRE 192 -64 192 -112
WIRE 240 -64 192 -64
WIRE -400 -32 -400 -80
WIRE 240 -32 240 -64
WIRE -848 -16 -848 -64
WIRE 192 -16 192 -64
WIRE 144 0 144 -128
WIRE 160 0 144 0
WIRE 240 16 240 0
WIRE 240 16 224 16
WIRE 288 16 240 16
WIRE -400 32 -416 32
WIRE -304 32 -320 32
WIRE -272 32 -304 32
WIRE -176 32 -192 32
WIRE -80 32 -176 32
WIRE 16 32 0 32
WIRE 32 32 16 32
WIRE 160 32 112 32
WIRE -304 64 -304 32
WIRE -176 64 -176 32
WIRE 192 96 192 48
FLAG -480 32 W1
IOPIN -480 32 In
FLAG -848 -16 0
FLAG -848 -192 W1
IOPIN -848 -192 In
FLAG -400 -32 0
FLAG -400 -208 Vb
IOPIN -400 -208 In
FLAG 192 -112 Vb
IOPIN 192 -112 In
FLAG 64 -112 0
FLAG 192 96 0
FLAG 16 96 0
FLAG -304 128 0
FLAG -176 128 0
SYMBOL voltage -848 -160 R0
WINDOW 3 -259 214 Left 2
WINDOW 123 0 0 Left 0
WINDOW 39 0 0 Left 0
SYMATTR Value SINE(0 0.1 1000 0.1p 0.1p 0.5 1000000)
SYMATTR InstName V1
SYMBOL cap -416 16 R90
WINDOW 0 0 32 VBottom 2
WINDOW 3 32 32 VTop 2
SYMATTR InstName C4
SYMATTR Value 100nF
SYMBOL voltage -400 -176 R0
WINDOW 123 0 0 Left 0
WINDOW 39 0 0 Left 0
SYMATTR InstName V3
SYMATTR Value 3.3
SYMBOL SBORKA\\COMPARATOR\\lm393 192 16 R0
SYMATTR InstName U1
SYMBOL MiniSyms4\\res- 240 -16 R0
WINDOW 3 16 18 Center 0
WINDOW 0 17 -2 Left 0
SYMATTR Value 10k
SYMATTR InstName R1
SYMBOL schottky 32 96 R180
WINDOW 0 -37 31 Left 2
WINDOW 3 47 -42 Right 2
SYMATTR InstName D1
SYMATTR Value 1N5819
SYMATTR Description Diode
SYMATTR Type diode
SYMBOL res -304 16 R90
WINDOW 0 0 56 VBottom 2
WINDOW 3 32 56 VTop 2
SYMATTR InstName R2
SYMATTR Value 10k
SYMBOL cap -320 64 R0
WINDOW 3 -68 54 Left 2
SYMATTR InstName C1
SYMATTR Value 4.7nF
SYMBOL cap -192 64 R0
WINDOW 0 28 17 Left 2
WINDOW 3 -19 6 VRight 2
SYMATTR InstName C2
SYMATTR Value 4.7nF
SYMBOL res -176 16 R90
WINDOW 0 0 56 VBottom 2
WINDOW 3 -27 12 VTop 2
SYMATTR InstName R3
SYMATTR Value 10k
SYMBOL res 16 16 R90
WINDOW 0 0 56 VBottom 2
WINDOW 3 32 56 VTop 2
SYMATTR InstName R4
SYMATTR Value 5.1k
SYMBOL res 128 16 R90
WINDOW 0 -1 84 VBottom 2
WINDOW 3 -27 31 VTop 2
SYMATTR InstName R5
SYMATTR Value 5.1k
TEXT -104 -136 Left 2 !.tran 20ms
